Circuit: * C:\Users\Richard\Documents\projects\12Month12Projects\Month01_UsbToSerial\circuitSimulations\Draft1.asc

Limiting rise time of source v1 to 0.1
Limiting fall time of source v1 to 0.1
Direct Newton iteration for .op point succeeded.

Date: Wed Jul 10 23:03:04 2019
Total elapsed time: 0.095 seconds.

tnom = 27
temp = 27
method = modified trap
totiter = 180
traniter = 176
tranpoints = 76
accept = 72
rejected = 4
matrix size = 7
fillins = 0
solver = Normal
Matrix Compiler1: 196 bytes object code size  0.1/0.0/[0.0]
Matrix Compiler2: 461 bytes object code size  0.0/0.1/[0.0]

